Version 4
SHEET 1 2852 680
WIRE 1600 -544 1136 -544
WIRE 1744 -544 1600 -544
WIRE 1792 -544 1744 -544
WIRE 2320 -544 2080 -544
WIRE 2496 -544 2320 -544
WIRE 2768 -544 2496 -544
WIRE 1600 -528 1600 -544
WIRE 2496 -528 2496 -544
WIRE 1744 -448 1744 -544
WIRE 1792 -448 1744 -448
WIRE 2320 -448 2320 -464
WIRE 2320 -448 2080 -448
WIRE 2320 -432 2320 -448
WIRE -96 -384 -640 -384
WIRE 608 -384 -32 -384
WIRE -752 -304 -848 -304
WIRE -640 -304 -640 -384
WIRE -640 -304 -688 -304
WIRE -496 -304 -640 -304
WIRE -384 -304 -496 -304
WIRE -320 -304 -384 -304
WIRE 608 -304 608 -384
WIRE 736 -304 608 -304
WIRE 1136 -304 1136 -544
WIRE 1136 -304 736 -304
WIRE 224 -256 128 -256
WIRE 352 -256 288 -256
WIRE 352 -240 352 -256
WIRE -496 -208 -496 -304
WIRE -640 -192 -640 -304
WIRE -320 -192 -320 -304
WIRE -224 -192 -320 -192
WIRE 128 -192 128 -256
WIRE 128 -192 64 -192
WIRE 208 -192 128 -192
WIRE 464 -192 288 -192
WIRE 128 -176 128 -192
WIRE 736 -128 736 -304
WIRE -496 -96 -496 -128
WIRE -224 -96 -496 -96
WIRE 288 -96 64 -96
WIRE -496 -48 -496 -96
WIRE -384 0 -384 -304
WIRE -224 0 -384 0
WIRE 128 0 128 -112
WIRE 128 0 64 0
WIRE 464 0 464 -192
WIRE 464 0 128 0
WIRE 528 0 464 0
WIRE 736 0 736 -64
WIRE 736 0 608 0
WIRE 880 0 736 0
WIRE 224 96 64 96
WIRE 352 96 352 -96
WIRE 352 96 224 96
WIRE 736 96 736 0
WIRE 736 96 352 96
WIRE 736 128 736 96
WIRE 224 192 224 96
WIRE 880 208 880 0
WIRE -224 288 -272 288
WIRE 224 288 224 272
WIRE 224 288 64 288
WIRE -272 304 -272 288
WIRE 880 320 880 288
WIRE 224 336 224 288
FLAG -496 32 0
FLAG -272 304 0
FLAG 224 416 0
FLAG -640 -128 0
FLAG 352 -240 0
FLAG 736 192 0
FLAG -848 -224 0
FLAG 880 320 0
FLAG -80 336 0
FLAG 736 -304 vload
FLAG 2768 -464 0
FLAG 2496 -464 0
FLAG 2320 -352 0
FLAG 1600 -464 0
FLAG 2768 -544 Vreg5
FLAG 1936 -384 0
SYMBOL PowerProducts\\LT3652HV -80 48 R0
SYMATTR InstName U1
SYMBOL res -512 -64 R0
SYMATTR InstName R1
SYMATTR Value 100k
SYMBOL res -512 -224 R0
SYMATTR InstName R2
SYMATTR Value 450k
SYMBOL res 208 320 R0
SYMATTR InstName R4
SYMATTR Value 459k
SYMBOL res 208 176 R0
SYMATTR InstName R5
SYMATTR Value 542k
SYMBOL cap -656 -192 R0
SYMATTR InstName C2
SYMATTR Value 10µ
SYMBOL schottky -752 -288 R270
WINDOW 0 32 32 VTop 2
WINDOW 3 0 32 VBottom 2
SYMATTR InstName D1
SYMBOL cap 112 -176 R0
SYMATTR InstName C3
SYMATTR Value 1µ
SYMBOL schottky 288 -272 R90
WINDOW 0 0 32 VBottom 2
WINDOW 3 32 32 VTop 2
SYMATTR InstName D2
SYMBOL schottky 752 -64 R180
WINDOW 0 24 64 Left 2
WINDOW 3 24 0 Left 2
SYMATTR InstName D4
SYMBOL ind 304 -208 R90
WINDOW 0 5 56 VBottom 2
WINDOW 3 32 56 VTop 2
SYMATTR InstName L1
SYMATTR Value 10µ
SYMBOL res 624 -16 R90
WINDOW 0 0 56 VBottom 2
WINDOW 3 32 56 VTop 2
SYMATTR InstName R3
SYMATTR Value 0.05
SYMBOL cap 720 128 R0
SYMATTR InstName C4
SYMATTR Value 10µ
SYMBOL diode 352 -112 R90
WINDOW 0 0 32 VBottom 2
WINDOW 3 32 32 VTop 2
SYMATTR InstName D3
SYMBOL voltage -848 -320 R0
WINDOW 123 0 0 Left 0
WINDOW 39 24 44 Left 2
SYMATTR SpiceLine Rser=1
SYMATTR InstName V1
SYMATTR Value PULSE(0 12 1m 1n 1n 11m 50)
SYMBOL voltage 880 192 R0
WINDOW 123 0 0 Left 0
WINDOW 39 0 0 Left 0
SYMATTR InstName V2
SYMATTR Value PULSE(5 8 2m 1n 1n 2m 4m)
SYMBOL PowerProducts\\LT3012 1936 -512 R0
SYMATTR InstName U2
SYMBOL cap 1584 -528 R0
SYMATTR InstName C1
SYMATTR Value 1µ
SYMBOL res 2304 -560 R0
SYMATTR InstName R6
SYMATTR Value 750k
SYMBOL res 2304 -448 R0
SYMATTR InstName R7
SYMATTR Value 250k
SYMBOL cap 2480 -528 R0
SYMATTR InstName C5
SYMATTR Value 3.3µ
SYMBOL res 2752 -560 R0
SYMATTR InstName R8
SYMATTR Value 100k
SYMBOL schottky -96 -368 R270
WINDOW 0 32 32 VTop 2
WINDOW 3 0 32 VBottom 2
SYMATTR InstName D5
TEXT -880 440 Left 2 !.tran 0 1s 0s
