Version 4
SHEET 1 2852 680
WIRE 1600 -544 1136 -544
WIRE 1744 -544 1600 -544
WIRE 1792 -544 1744 -544
WIRE 2320 -544 2080 -544
WIRE 2496 -544 2320 -544
WIRE 2768 -544 2496 -544
WIRE 1600 -528 1600 -544
WIRE 2496 -528 2496 -544
WIRE 1744 -448 1744 -544
WIRE 1792 -448 1744 -448
WIRE 2320 -448 2320 -464
WIRE 2320 -448 2080 -448
WIRE 2320 -432 2320 -448
WIRE -96 -384 -640 -384
WIRE 608 -384 -32 -384
WIRE 224 -320 128 -320
WIRE -752 -304 -848 -304
WIRE -640 -304 -640 -384
WIRE -640 -304 -688 -304
WIRE -496 -304 -640 -304
WIRE -384 -304 -496 -304
WIRE -320 -304 -384 -304
WIRE 608 -304 608 -384
WIRE 736 -304 608 -304
WIRE 1136 -304 1136 -544
WIRE 1136 -304 736 -304
WIRE 128 -272 128 -320
WIRE 640 -272 128 -272
WIRE -496 -208 -496 -304
WIRE -640 -192 -640 -304
WIRE -320 -192 -320 -304
WIRE -224 -192 -320 -192
WIRE 128 -192 128 -272
WIRE 128 -192 64 -192
WIRE 144 -192 128 -192
WIRE 256 -192 224 -192
WIRE 640 -192 640 -272
WIRE 640 -128 320 -128
WIRE 736 -128 736 -304
WIRE -496 -96 -496 -128
WIRE -224 -96 -496 -96
WIRE 320 -96 320 -128
WIRE 320 -96 64 -96
WIRE -496 -48 -496 -96
WIRE -384 0 -384 -304
WIRE -224 0 -384 0
WIRE 256 0 256 -192
WIRE 320 0 256 0
WIRE 464 0 400 0
WIRE 736 0 736 -64
WIRE 880 0 736 0
WIRE 464 64 464 0
WIRE 464 64 416 64
WIRE 640 64 640 -64
WIRE 640 64 464 64
WIRE 736 64 736 0
WIRE 736 64 640 64
WIRE 416 96 416 64
WIRE 416 96 64 96
WIRE 736 128 736 64
WIRE 464 160 464 128
WIRE 544 160 464 160
WIRE 640 160 640 144
WIRE 640 160 624 160
WIRE 640 176 640 160
WIRE 880 208 880 0
WIRE -224 288 -272 288
WIRE 464 288 464 160
WIRE 464 288 64 288
WIRE -272 304 -272 288
WIRE 880 320 880 272
FLAG -496 32 0
FLAG -272 304 0
FLAG -640 -128 0
FLAG 736 192 0
FLAG -848 -224 0
FLAG 880 320 0
FLAG -80 336 0
FLAG 736 -304 vload
FLAG 2768 -464 0
FLAG 2496 -464 0
FLAG 2320 -352 0
FLAG 1600 -464 0
FLAG 2768 -544 Vreg5
FLAG 1936 -384 0
FLAG 288 -320 0
FLAG 640 256 0
SYMBOL PowerProducts\\LT3652HV -80 48 R0
SYMATTR InstName U1
SYMBOL res -512 -64 R0
SYMATTR InstName R1
SYMATTR Value 100k
SYMBOL res -512 -224 R0
SYMATTR InstName R2
SYMATTR Value 530k
SYMBOL cap -656 -192 R0
SYMATTR InstName C2
SYMATTR Value 10µ
SYMBOL schottky -752 -288 R270
WINDOW 0 32 32 VTop 2
WINDOW 3 0 32 VBottom 2
SYMATTR InstName D1
SYMBOL schottky 752 -64 R180
WINDOW 0 24 64 Left 2
WINDOW 3 24 0 Left 2
SYMATTR InstName D4
SYMBOL ind 240 -208 R90
WINDOW 0 5 56 VBottom 2
WINDOW 3 32 56 VTop 2
SYMATTR InstName L1
SYMATTR Value 10µ
SYMBOL cap 720 128 R0
SYMATTR InstName C4
SYMATTR Value 10µ
SYMBOL voltage -848 -320 R0
WINDOW 123 0 0 Left 0
WINDOW 39 24 44 Left 2
SYMATTR InstName V1
SYMATTR Value 12
SYMATTR SpiceLine Rser=1
SYMBOL voltage 16 544 R0
WINDOW 123 0 0 Left 0
WINDOW 39 0 0 Left 0
SYMATTR InstName V2
SYMATTR Value PULSE(5 8 2m 1n 1n 2 4)
SYMBOL PowerProducts\\LT3012 1936 -512 R0
SYMATTR InstName U2
SYMBOL cap 1584 -528 R0
SYMATTR InstName C1
SYMATTR Value 1µ
SYMBOL res 2304 -560 R0
SYMATTR InstName R6
SYMATTR Value 750k
SYMBOL res 2304 -448 R0
SYMATTR InstName R7
SYMATTR Value 250k
SYMBOL cap 2480 -528 R0
SYMATTR InstName C5
SYMATTR Value 3.3µ
SYMBOL res 2752 -560 R0
SYMATTR InstName R8
SYMATTR Value 100k
SYMBOL schottky -96 -368 R270
WINDOW 0 32 32 VTop 2
WINDOW 3 0 32 VBottom 2
SYMATTR InstName D5
SYMBOL schottky 656 -64 R180
WINDOW 0 24 64 Left 2
WINDOW 3 24 0 Left 2
SYMATTR InstName D2
SYMBOL cap 624 -192 R0
SYMATTR InstName C3
SYMATTR Value 1µ
SYMBOL res 624 48 R0
SYMATTR InstName R3
SYMATTR Value 500k
SYMBOL res 624 160 R0
SYMATTR InstName R4
SYMATTR Value 330k
SYMBOL res 640 144 R90
WINDOW 0 0 56 VBottom 2
WINDOW 3 32 56 VTop 2
SYMATTR InstName R5
SYMATTR Value 51k
SYMBOL cap 448 64 R0
WINDOW 3 38 53 Left 2
SYMATTR InstName C6
SYMATTR Value 33p
SYMBOL res 416 -16 R90
WINDOW 0 0 56 VBottom 2
WINDOW 3 32 56 VTop 2
SYMATTR InstName R9
SYMATTR Value 50m
SYMBOL schottky 288 -336 R90
WINDOW 0 0 32 VBottom 2
WINDOW 3 32 32 VTop 2
SYMATTR InstName D3
SYMBOL cap 864 208 R0
SYMATTR InstName C7
SYMATTR Value 1µ
TEXT -882 440 Left 2 !.tran 0 10s 0s
